examples/national_grid/data/ireland/models/snv10.raw
<!DOCTYPE HTML PUBLIC "-//W3C//DTD HTML 4.0 Transitional//EN">
<!-- saved from url=(0071)http://www.eirgrid.com/EirgridPortal/uploads/Publications/snv10_web.raw -->
<HTML><HEAD>
<META http-equiv=Content-Type content="text/html; charset=windows-1252">
<META content="MSHTML 6.00.2900.3492" name=GENERATOR></HEAD>
<BODY><PRE>0,   100.00          / PSS/E-29.4    THU, JUL 22 2004  15:59
ESB NATIONAL GRID FORECAST STATEMENT 2004-2010
BASECASE SUMMER NIGHT VALLEY 2010
   10,'F_M_____',  38.0000,1,     0.000,     0.000,   1,   1,1.03436, -14.7699,   2
   11,'FMN_LOOP',  38.0000,1,     0.000,     0.000,   1,   1,1.02658, -16.4203,   2
   12,'BEDFORD ',  38.0000,1,     0.000,     0.000,   1,   1,1.02056, -15.4897,   2
   13,'M_R_____',  38.0000,1,     0.000,     0.000,   1,   1,1.02496, -15.4615,   2
   14,'F_I_____',  38.0000,1,     0.000,     0.000,   1,   1,1.03883, -14.5812,   2
   15,'I_M_____',  38.0000,1,     0.000,     0.000,   1,   1,1.04327, -15.5351,   2
   41,'TANEY   ', 110.0000,1,     0.000,     0.000,   1,   1,1.00532, -13.4660,   1
   51,'MISERY H', 110.0000,1,     0.000,     0.000,   1,   1,1.00903, -12.9228,   1
   52,'MISERY H',  38.0000,1,     0.000,     0.000,   1,   1,1.00903, -12.9228,   1
 1021,'ARDNACRU', 110.0000,1,     0.000,     0.000,   7,   1,1.01485, -14.0156,   1
 1041,'AGHADA  ', 110.0000,1,     0.000,     0.000,   3,   1,0.99976, -16.3123,   1
 1042,'AGHADA  ', 220.0000,1,     0.000,     0.000,   3,   1,0.99053, -15.5578,   1
 1061,'ARIGNA  ', 110.0000,1,     0.000,     0.000,   9,   1,1.00358, -10.6899,   2
 1081,'AHANE   ', 110.0000,1,     0.000,     0.000,   7,   1,1.02742, -14.1656,   2
 1101,'ANNER   ', 110.0000,1,     0.000,     0.000,   5,   3,1.01128, -16.8675,   5
 1121,'ARKLOW  ', 110.0000,1,     0.000,     0.000,   6,   1,1.01895, -12.0673,   1
 1122,'ARKLOW  ', 220.0000,1,     0.000,     0.000,   6,   1,1.02513, -12.1781,   1
 1141,'ATHLONE ', 110.0000,1,     0.000,     0.000,   8,   1,1.00993, -10.0923,   1
 1151,'ARKLOW B', 110.0000,2,     0.000,     0.000,   6,   1,1.02222, -11.7824,   1
 1161,'AUGHINIS', 110.0000,1,     0.000,     0.000,   7,   3,1.01500, -10.1150,   1
 1171,'SEALROCK', 110.0000,1,     0.000,     0.000,   7,   1,1.01525, -10.0574,   1
 1181,'ARVA    ', 110.0000,1,     0.000,     0.000,  10,   1,0.99748, -12.2932,   1
 1191,'SEALROCK', 110.0000,1,     0.000,     0.000,   7,   1,1.01525, -10.0574,   1
 1201,'ARTANE  ', 110.0000,1,     0.000,     0.000,   1,   1,1.01257, -13.3463,   2
 1221,'ATHY    ', 110.0000,1,     0.000,     0.000,   8,   1,1.00564, -12.1587,   1
 1231,'BALLYWAT', 110.0000,2,     0.000,     0.000,   6,   1,1.01440, -12.9182,   1
 1251,'BOOLTIAG', 110.0000,2,     0.000,     0.000,   7,   1,1.00594, -12.3443,   1
 1281,'BALLYLIC', 110.0000,1,     0.000,     0.000,   3,   1,1.00017, -16.6323,   2
 1301,'BALLYBEG', 110.0000,1,     0.000,     0.000,   6,   1,1.01488, -12.2766,   1
 1321,'BLAKE   ', 110.0000,1,     0.000,     0.000,   8,   1,0.99952, -11.7144,   2
 1341,'BINBANE ', 110.0000,1,     0.000,     0.000,   9,   1,0.99059, -11.3371,   2
 1361,'BALLYDIN', 110.0000,1,     0.000,     0.000,   5,   1,1.00917, -16.5045,   1
 1381,'BARNAHEL', 110.0000,1,     0.000,     0.000,   3,   1,0.99592, -16.7381,   1
 1401,'BELLACOR', 110.0000,1,     0.000,     0.000,   9,   1,0.99600, -11.3841,   1
 1421,'BLACKROC', 110.0000,1,     0.000,     0.000,   2,   2,1.01217, -12.2391,   2
 1441,'BANDON  ', 110.0000,1,     0.000,     0.000,   3,   1,0.99238, -16.9962,   1
 1461,'BARRYMOR', 110.0000,1,     0.000,     0.000,   5,   1,1.00770, -16.7231,   2
 1481,'BUTLERST', 110.0000,1,     0.000,     0.000,   5,   1,1.00652, -15.6422,   1
 1501,'BRINNY  ', 110.0000,1,     0.000,     0.000,   3,   1,0.99223, -17.0056,   5
 1511,'BRINNY  ', 110.0000,1,     0.000,     0.000,   3,   1,0.99224, -17.0052,   5
 1541,'BANOGE  ', 110.0000,1,     0.000,     0.000,   6,   1,1.01369, -12.7853,   1
 1581,'CABRA   ', 110.0000,1,     0.000,     0.000,   1,   2,1.01231, -13.3529,   2
 1601,'CLASHAVO', 110.0000,1,     0.000,     0.000,   3,   1,1.02467, -15.8919,   1
 1602,'CLASHAVO', 220.0000,1,     0.000,     0.000,   3,   1,0.98714, -14.2087,   1
 1621,'COOLROE ', 110.0000,1,     0.000,     0.000,   3,   1,1.00613, -16.7739,   1
 1631,'CORDERRY', 110.0000,1,     0.000,     0.000,   9,   1,1.00497, -10.7053,   1
 1641,'CASHLA  ', 110.0000,1,     0.000,     0.000,   9,   1,1.00259,  -9.0098,   1
 1642,'CASHLA  ', 220.0000,1,     0.000,     0.000,   9,   1,1.00129,  -7.2774,   1
 1661,'CASTLEBA', 110.0000,1,     0.000,     0.000,   9,   1,0.99833, -11.2144,   1
 1681,'CARRIGAD', 110.0000,1,     0.000,     0.000,   3,   1,1.01448, -16.4531,   1
 1701,'CATH_FAL', 110.0000,1,     0.000,     0.000,   9,   1,0.99879, -10.8538,   1
 1721,'CAHIR   ', 110.0000,1,     0.000,     0.000,   5,   1,1.01609, -16.4643,   1
 1741,'CARRICKM', 110.0000,1,     0.000,     0.000,   2,   2,1.01228, -12.1785,   2
 1742,'CARRICKM', 220.0000,1,     0.000,     0.000,   2,   2,1.02849, -11.0940,   1
 1761,'CLIFF   ', 110.0000,1,     0.000,     0.000,   9,   1,0.99880, -10.8541,   1
 1781,'CASTLEFA', 110.0000,1,     0.000,     0.000,   7,   3,1.01458, -10.1353,   5
 1791,'CASTLEFA', 110.0000,1,     0.000,     0.000,   7,   3,1.01458, -10.1353,   5
 1801,'COOKSTOW', 110.0000,1,     0.000,     0.000,   1,   2,1.00262, -13.4409,   2
 1821,'CLOON   ', 110.0000,1,     0.000,     0.000,   9,   1,1.00121,  -9.5599,   2
 1841,'CRANE   ', 110.0000,1,     0.000,     0.000,   6,   1,1.01039, -13.3827,   1
 1861,'CARRICK ', 110.0000,1,     0.000,     0.000,   9,   1,1.00214, -10.8026,   1
 1871,'COLLEGE ', 110.0000,1,     0.000,     0.000,   2,   1,1.01532, -12.7149,   1
 1881,'CHARLEVI', 110.0000,1,     0.000,     0.000,   3,   1,1.01083, -15.8008,   1
 1901,'CARLOW  ', 110.0000,1,     0.000,     0.000,   8,   1,1.01353, -13.3933,   1
 1921,'COW CROS', 110.0000,1,     0.000,     0.000,   3,   1,0.99836, -16.6773,   1
 1931,'CUNGHILL', 110.0000,1,     0.000,     0.000,   9,   1,1.00181, -10.9400,   4
 1941,'CUSHALIN', 110.0000,1,     0.000,     0.000,   8,   1,1.00000,  -7.2265,   1
 1961,'CASTLEVI', 110.0000,1,     0.000,     0.000,   3,   1,1.00448, -16.6379,   1
 1981,'CORRACLA', 110.0000,1,     0.000,     0.000,   9,   1,0.99294, -12.2320,   1
 2001,'CULLENAG', 110.0000,1,     0.000,     0.000,   5,   1,1.00845, -15.6067,   1
 2002,'CULLENAG', 220.0000,1,     0.000,     0.000,   5,   1,1.00581, -14.5992,   1
 2021,'CITY WES', 110.0000,1,     0.000,     0.000,   1,   1,1.00314, -13.4180,   2
 2041,'CORDUFF ', 110.0000,1,     0.000,     0.000,   2,   1,1.01621, -12.6435,   1
 2042,'CORDUFF ', 220.0000,1,     0.000,     0.000,   2,   1,1.03006, -11.2020,   1
 2081,'DUNKETTL', 110.0000,1,     0.000,     0.000,   3,   1,1.00448, -16.6379,   5
 2101,'DUNDALK ', 110.0000,1,     0.000,     0.000,  10,   1,1.00839, -13.1795,   1
 2121,'DRUMLINE', 110.0000,1,     0.000,     0.000,   7,   1,1.00013, -13.8195,   1
 2141,'DUNGARVA', 110.0000,1,     0.000,     0.000,   5,   1,1.00308, -16.4351,   1
 2161,'DOON    ', 110.0000,1,     0.000,     0.000,   5,   1,1.01188, -16.8317,   1
 2181,'DRYBRIDG', 110.0000,1,     0.000,     0.000,  10,   1,1.00299, -13.4731,   1
 2202,'DUNSTOWN', 220.0000,1,     0.000,     0.000,   2,   1,1.02373, -11.6314,   1
 2204,'DUNSTOWN', 380.0000,1,     0.000,     0.000,   2,   1,1.03172,  -8.5075,   1
 2221,'DUNMANWA', 110.0000,1,     0.000,     0.000,   3,   1,1.00005, -16.6622,   1
 2231,'DERRYBRI', 110.0000,2,     0.000,     0.000,   9,   1,1.01429, -10.0970,   1
 2241,'DALLOW  ', 110.0000,1,     0.000,     0.000,   5,   1,1.00209,  -9.9152,   2
 2261,'DERRYIRO', 110.0000,1,     0.000,     0.000,   2,   1,1.00035, -13.9824,   1
 2281,'DALTON  ', 110.0000,1,     0.000,     0.000,   9,   1,0.99752, -10.6717,   1
 2301,'DUNFIRTH', 110.0000,1,     0.000,     0.000,   2,   1,1.00156, -13.7246,   2
 2321,'DRUMKEEN', 110.0000,1,     0.000,     0.000,   9,   1,1.00347,  -9.6080,   1
 2361,'ENNIS   ', 110.0000,1,     0.000,     0.000,   7,   1,1.00250, -12.7024,   1
 2481,'FASS EAS', 110.0000,1,     0.000,     0.000,   2,   2,1.01022, -12.3129,   2
 2491,'FASS WES', 110.0000,1,     0.000,     0.000,   2,   2,1.01014, -12.3123,   2
 2521,'FLAGFORD', 110.0000,1,     0.000,     0.000,   9,   1,1.00273, -10.7159,   1
 2522,'FLAGFORD', 220.0000,1,     0.000,     0.000,   9,   1,0.99884, -10.0633,   1
 2541,'FRN ST A', 110.0000,1,     0.000,     0.000,   1,   2,1.00870, -12.9656,   2
 2551,'FRN ST B', 110.0000,1,     0.000,     0.000,   1,   2,1.00571, -13.2716,   2
 2561,'FIN_URBA', 110.0000,1,     0.000,     0.000,   2,   2,1.01281, -13.2535,   1
 2562,'FINGLAS ', 220.0000,1,     0.000,     0.000,   2,   2,1.03237, -11.1916,   1
 2571,'FIN_RURA', 110.0000,1,     0.000,     0.000,   2,   2,1.01498, -12.7351,   1
 2681,'GILRA   ', 110.0000,1,     0.000,     0.000,   9,   3,0.99917, -10.9258,   2
 2701,'GLASMORE', 110.0000,1,     0.000,     0.000,   2,   2,1.00930, -13.6460,   2
 2721,'GRIFFINR', 110.0000,1,     0.000,     0.000,   2,   2,1.00711, -13.0862,   2
 2731,'GRIFFINR', 110.0000,1,     0.000,     0.000,   2,   1,1.00705, -13.0732,   2
 2741,'GREAT IS', 110.0000,1,     0.000,     0.000,   6,   1,1.01127, -15.0912,   1
 2742,'GREAT IS', 220.0000,1,     0.000,     0.000,   6,   1,1.00910, -14.0399,   1
 2761,'GRANGE  ', 110.0000,1,     0.000,     0.000,   1,   2,1.01280, -13.3545,   2
 2781,'GALWAY  ', 110.0000,1,     0.000,     0.000,   9,   1,0.99784,  -9.3464,   1
 2801,'GOLAGH  ', 110.0000,1,     0.000,     0.000,   9,   1,1.00019, -10.2023,   1
 2821,'GORTAWEE', 110.0000,1,     0.000,     0.000,   9,   1,0.99108, -12.4744,   1
 2841,'GORMAN  ', 110.0000,1,     0.000,     0.000,  10,   1,1.00317, -13.3371,   1
 2842,'GORMAN  ', 220.0000,1,     0.000,     0.000,  10,   1,1.01377, -12.1506,   1
 2861,'GRANGE C', 110.0000,1,     0.000,     0.000,   1,   1,1.00175, -13.6013,   2
 2881,'GLENLARA', 110.0000,1,     0.000,     0.000,   3,   1,1.00740, -16.0376,   2
 2921,'HAULBOWL', 110.0000,1,     0.000,     0.000,   3,   3,0.99669, -16.6864,   5
 2931,'HAULBOWL', 110.0000,1,     0.000,     0.000,   3,   3,0.99593, -16.7383,   5
 2941,'HAROLDS ', 110.0000,1,     0.000,     0.000,   1,   2,1.00883, -12.9494,   2
 2962,'HUNTSTOW', 220.0000,1,     0.000,     0.000,   2,   1,1.03236, -11.0974,   1
 2981,'HARNETTS', 110.0000,1,     0.000,     0.000,   3,   1,1.01453, -16.4683,   2
 3061,'INISCARR', 110.0000,1,     0.000,     0.000,   3,   1,1.00867, -16.6796,   1
 3081,'INCHICOR', 110.0000,1,     0.000,     0.000,   1,   2,1.00631, -13.2306,   2
 3082,'INCHICOR', 220.0000,1,     0.000,     0.000,   2,   2,1.03311, -11.5662,   1
 3101,'IKERRIN ', 110.0000,1,     0.000,     0.000,   5,   1,1.00475, -13.9402,   2
 3122,'IRISHTOW', 220.0000,1,     0.000,     0.000,   2,   1,1.03177, -11.0172,   1
 3201,'KNOCKRAH', 110.0000,1,     0.000,     0.000,   3,   1,1.00872, -16.5144,   1
 3202,'KNOCKRAH', 220.0000,1,     0.000,     0.000,   3,   1,0.98897, -15.3649,   1
 3221,'KILBARRY', 110.0000,1,     0.000,     0.000,   3,   1,1.00261, -16.8755,   1
 3241,'KILTEEL ', 110.0000,1,     0.000,     0.000,   8,   1,1.00014, -12.3183,   2
 3261,'KILKENNY', 110.0000,1,     0.000,     0.000,   8,   1,1.00584, -14.7013,   1
 3281,'KILLONAN', 110.0000,1,     0.000,     0.000,   7,   1,1.02739, -14.1652,   1
 3282,'KILLONAN', 220.0000,1,     0.000,     0.000,   7,   1,0.98171, -12.7740,   1
 3301,'KNOCKERA', 110.0000,1,     0.000,     0.000,   7,   1,1.01757, -14.7811,   1
 3321,'KNOCKUMB', 110.0000,1,     0.000,     0.000,  10,   3,0.99738, -13.6410,   5
 3341,'KELLIS  ', 110.0000,1,     0.000,     0.000,   8,   1,1.01516, -13.4566,   1
 3342,'KELLIS  ', 220.0000,1,     0.000,     0.000,   8,   1,1.01332, -12.9438,   1
 3361,'KILTOY  ', 110.0000,1,     0.000,     0.000,   9,   3,0.99979,  -9.8683,   5
 3371,'KILTOY  ', 110.0000,1,     0.000,     0.000,   9,   3,0.99970,  -9.8738,   5
 3381,'KINNEGAD', 110.0000,1,     0.000,     0.000,   2,   1,0.99953, -14.0287,   1
 3401,'KILLOTER', 110.0000,1,     0.000,     0.000,   5,   1,1.00723, -15.5714,   1
 3421,'KILMORE ', 110.0000,1,     0.000,     0.000,   1,   1,1.01261, -13.3360,   2
 3441,'KILMURRY', 110.0000,1,     0.000,     0.000,   8,   1,1.00951, -15.1181,   1
 3501,'LANESBOR', 110.0000,1,     0.000,     0.000,   9,   1,1.00000,  -8.8440,   1
 3521,'LOUTH   ', 110.0000,1,     0.000,     0.000,  10,   1,1.01513, -12.7513,   1
 3522,'LOUTH   ', 220.0000,1,     0.000,     0.000,  10,   1,1.00983, -11.9210,   1
 3541,'LIMERICK', 110.0000,1,     0.000,     0.000,   7,   1,1.02082, -13.8454,   1
 3561,'LISDRUM ', 110.0000,1,     0.000,     0.000,  10,   1,1.00178, -13.0223,   1
 3581,'LETTERKE', 110.0000,1,     0.000,     0.000,   9,   1,1.00094,  -9.7946,   1
 3601,'LIBERTY ', 110.0000,1,     0.000,     0.000,   3,   1,1.00083, -16.9438,   2
 3611,'LIBERTY ', 110.0000,1,     0.000,     0.000,   3,   1,1.00086, -16.9383,   2
 3621,'LISHEEN ', 110.0000,1,     0.000,     0.000,   5,   1,1.00668, -15.9064,   1
 3761,'MACETOWN', 110.0000,1,     0.000,     0.000,   2,   2,1.01228, -12.9020,   1
 3781,'MCDERMOT', 110.0000,1,     0.000,     0.000,   1,   2,1.01229, -13.3710,   2
 3801,'MIDLETON', 110.0000,1,     0.000,     0.000,   3,   1,1.00387, -16.6007,   1
 3821,'MEATH HI', 110.0000,1,     0.000,     0.000,  10,   1,1.00833, -13.0774,   2
 3841,'MAYNOOTH', 110.0000,1,     0.000,     0.000,   2,   2,1.00750, -13.0216,   1
 3842,'MAYNOOTH', 220.0000,1,     0.000,     0.000,   2,   2,1.02470, -11.7689,   1
 3861,'MILLTOWN', 110.0000,1,     0.000,     0.000,   1,   2,1.00905, -12.9051,   2
 3871,'MILLTOWN', 110.0000,1,     0.000,     0.000,   1,   2,1.00539, -13.4524,   2
 3881,'MACROOM ', 110.0000,1,     0.000,     0.000,   3,   1,1.01482, -16.4400,   1
 3901,'MONETEEN', 110.0000,1,     0.000,     0.000,   7,   1,1.01858, -13.2469,   1
 3941,'MONEYPOI', 110.0000,1,     0.000,     0.000,   7,   1,1.00626, -12.3010,   1
 3942,'MONEYPOI', 220.0000,1,     0.000,     0.000,   7,   1,1.01981,  -9.2439,   1
 3944,'MNYPG1G3', 380.0000,1,     0.000,     6.000,   2,   1,1.04502,  -4.0922,   1
 3954,'MNYPG2  ', 380.0000,1,     0.000,     6.000,   7,   1,1.05000,  -6.7542,   1
 3961,'MARINA  ', 110.0000,1,     0.000,     0.000,   3,   1,1.00087, -16.9366,   1
 3981,'MUNGRET ', 110.0000,1,     0.000,     0.000,   7,   3,1.01843, -13.2556,   5
 3991,'MUNGRET ', 110.0000,1,     0.000,     0.000,   7,   3,1.01844, -13.2552,   5
 4001,'MULLINGA', 110.0000,1,     0.000,     0.000,   9,   1,0.99901, -10.9586,   1
 4021,'MALLOW  ', 110.0000,1,     0.000,     0.000,   3,   1,1.00651, -16.4136,   1
 4041,'MOY     ', 110.0000,1,     0.000,     0.000,   9,   1,0.99461, -11.5606,   1
 4061,'MULLAGHA', 110.0000,1,     0.000,     0.000,  10,   1,1.00986, -13.0853,   2
 4071,'MEENTYCA', 110.0000,2,     0.000,     0.000,   9,   1,1.00540,  -9.3661,   1
 4081,'MONREAD ', 110.0000,1,     0.000,     0.000,   8,   1,0.99872, -11.8272,   1
 4201,'NEWBRIDG', 110.0000,1,     0.000,     0.000,   8,   1,0.99801, -11.0481,   1
 4221,'NAVAN   ', 110.0000,1,     0.000,     0.000,  10,   1,1.00104, -13.4161,   1
 4242,'NORTH WA', 220.0000,1,     0.000,     0.000,   2,   2,1.03485, -11.5005,   1
 4261,'NENAGH  ', 110.0000,1,     0.000,     0.000,   7,   1,1.02187, -14.5370,   1
 4281,'NANGOR  ', 110.0000,1,     0.000,     0.000,   1,   1,1.00149, -13.6199,   1
 4341,'OLDCOURT', 110.0000,1,     0.000,     0.000,   3,   3,0.99836, -16.6773,   5
 4351,'OLDCOURT', 110.0000,1,     0.000,     0.000,   3,   3,0.99836, -16.6773,   5
 4361,'OUGHTRAG', 110.0000,1,     0.000,     0.000,   7,   1,1.02040, -13.7386,   2
 4382,'OLDSTREE', 220.0000,1,     0.000,     0.000,   9,   1,1.00891,  -3.8255,   1
 4384,'OLDSTREE', 380.0000,1,     0.000,     0.000,   9,   1,1.03432,  -5.2300,   1
 4441,'POLLAPHU', 110.0000,1,     0.000,     0.000,   8,   1,1.01075, -13.6083,   1
 4451,'POOLBEG ', 110.0000,1,     0.000,     0.000,   1,   1,1.00914, -12.8681,   2
 4461,'POOLBEG ', 110.0000,1,     0.000,     0.000,   1,   1,1.00893, -12.8258,   2
 4462,'POOLBEG ', 220.0000,1,     0.000,     0.000,   2,   2,1.03500, -11.6079,   1
 4471,'POOLBEG ', 110.0000,1,     0.000,     0.000,   1,   1,1.00894, -12.8275,   2
 4481,'PORTLAOI', 110.0000,1,     0.000,     0.000,   8,   1,1.00105, -10.5757,   1
 4501,'PLATIN  ', 110.0000,1,     0.000,     0.000,  10,   3,1.00201, -13.5184,   1
 4522,'PROSPECT', 220.0000,1,     0.000,     0.000,   7,   1,1.01488,  -9.8832,   1
 4621,'RYEBROOK', 110.0000,1,     0.000,     0.000,   2,   3,0.99942, -13.6889,   1
 4651,'RINGSEND', 110.0000,1,     0.000,     0.000,   1,   2,1.00913, -12.8679,   2
 4681,'RATHKEAL', 110.0000,1,     0.000,     0.000,   7,   1,1.02379, -13.0268,   1
 4701,'RICHMOND', 110.0000,1,     0.000,     0.000,   9,   1,0.99711,  -9.0365,   2
 4721,'RAFFEEN ', 110.0000,1,     0.000,     0.000,   3,   1,0.99667, -16.6860,   1
 4722,'RAFFEEN ', 220.0000,1,     0.000,     0.000,   3,   1,0.99125, -15.7980,   1
 4741,'RINAWADE', 110.0000,1,     0.000,     0.000,   2,   3,1.00400, -13.3239,   1
 4761,'RINGASKI', 110.0000,1,     0.000,     0.000,   3,   1,0.99659, -16.6910,   2
 4781,'RATRUSSA', 110.0000,1,     0.000,     0.000,  10,   1,1.00740, -11.8960,   1
 4901,'SHELTON ', 110.0000,1,     0.000,     0.000,   6,   3,1.01896, -12.0674,   5
...
0 / END OF BUS DATA, BEGIN LOAD DATA
   10,'LD',1,   1,   1,    18.490,     0.590,     0.000,     0.000,     0.000,     0.000,   2
   11,'LD',1,   1,   1,    38.980,     4.840,     0.000,     0.000,     0.000,     0.000,   2
   12,'LD',1,   1,   1,    30.780,     8.080,     0.000,     0.000,     0.000,     0.000,   2
   13,'LD',1,   1,   1,    30.530,     4.100,     0.000,     0.000,     0.000,     0.000,   2
   14,'LD',1,   1,   1,    18.020,    12.050,     0.000,     0.000,     0.000,     0.000,   2
   15,'LD',1,   1,   1,    34.400,     8.890,     0.000,     0.000,     0.000,     0.000,   2
   41,'LD',1,   1,   1,     5.700,     1.970,     0.000,     0.000,     0.000,     0.000,   2
   51,'LD',1,   1,   1,     2.240,     0.790,     0.000,     0.000,     0.000,     0.000,   2
 1101,'LD',1,   5,   2,    11.000,     3.850,     0.000,     0.000,     0.000,     0.000,   5
 1101,'MI',0,   5,   2,     6.500,     1.950,     0.000,     0.000,     0.000,     0.000,   5
 1871,'LD',1,   2,   2,    16.000,     5.250,     0.000,     0.000,     0.000,     0.000,   5
 2821,'LD',1,   9,   2,    16.000,     5.550,     0.000,     0.000,     0.000,     0.000,   5
 2821,'MI',0,   9,   2,     6.000,     1.800,     0.000,     0.000,     0.000,     0.000,   5
 3321,'LD',1,  10,   2,    22.000,     7.480,     0.000,     0.000,     0.000,     0.000,   5
 3321,'MI',0,  10,   2,     1.000,     0.300,     0.000,     0.000,     0.000,     0.000,   5
 3421,'LD',1,   1,   2,    12.000,     4.060,     0.000,     0.000,     0.000,     0.000,   5
 3621,'LD',1,   5,   2,    10.000,     3.280,     0.000,     0.000,     0.000,     0.000,   5
 3621,'MI',0,   5,   2,     2.000,     0.600,     0.000,     0.000,     0.000,     0.000,   5
 3621,'PK',0,   5,   2,     5.000,     1.500,     0.000,     0.000,     0.000,     0.000,   5
 4501,'LD',1,  10,   2,    27.000,     9.170,     0.000,     0.000,     0.000,     0.000,   5
 4501,'MI',0,  10,   2,     6.500,     1.950,     0.000,     0.000,     0.000,     0.000,   5
 5031,'LD',1,   2,   1,     4.630,     1.870,     0.000,     0.000,     0.000,     0.000,   2
10204,'LD',1,   7,   1,    10.530,     1.520,     0.000,     0.000,     0.000,     0.000,   2
10205,'LD',1,   7,   1,    19.030,     6.220,     0.000,     0.000,     0.000,     0.000,   2
10471,'LD',0,   3,   1,    12.150,     4.370,     0.000,     0.000,     0.000,     0.000,   3
10602,'LD',1,   9,   1,     1.170,     0.120,     0.000,     0.000,     0.000,     0.000,   2
11204,'LD',1,   6,   1,     5.630,     3.240,     0.000,     0.000,     0.000,     0.000,   2
11404,'LD',1,   9,   1,    21.990,     8.080,     0.000,     0.000,     0.000,     0.000,   2
11671,'LD',1,   7,   1,     1.260,     0.450,     0.000,     0.000,     0.000,     0.000,   1
11672,'LD',1,   7,   1,     1.260,     0.450,     0.000,     0.000,     0.000,     0.000,   4
12001,'LD',1,   1,   1,     4.440,     1.110,     0.000,     0.000,     0.000,     0.000,   2
12202,'LD',1,   8,   1,     5.340,     1.760,     0.000,     0.000,     0.000,     0.000,   2
12804,'LD',1,   3,   1,     3.510,     1.170,     0.000,     0.000,     0.000,     0.000,   2
13001,'LD',1,   6,   1,     5.980,     2.360,     0.000,     0.000,     0.000,     0.000,   2
13204,'LD',1,   8,   1,     6.290,     1.890,     0.000,     0.000,     0.000,     0.000,   2
13404,'LD',1,   9,   1,     8.660,     3.280,     0.000,     0.000,     0.000,     0.000,   2
13601,'LD',1,   5,   2,     5.900,     1.930,     0.000,     0.000,     0.000,     0.000,   5
13601,'MI',0,   5,   2,     1.590,     0.470,     0.000,     0.000,     0.000,     0.000,   5
13604,'LD',1,   5,   1,     1.520,     0.940,     0.000,     0.000,     0.000,     0.000,   2
13802,'LD',1,   3,   1,    22.700,     5.970,     0.000,     0.000,     0.000,     0.000,   2
13804,'LD',1,   3,   1,    11.700,     3.390,     0.000,     0.000,     0.000,     0.000,   2
14002,'LD',1,   9,   1,     1.400,     0.700,     0.000,     0.000,     0.000,     0.000,   2
14204,'LD',1,   2,   1,    22.860,     1.380,     0.000,     0.000,     0.000,     0.000,   2
14401,'LD',1,   3,   1,     3.590,     1.050,     0.000,     0.000,     0.000,     0.000,   2
14404,'LD',1,   3,   1,     9.050,     4.450,     0.000,     0.000,     0.000,     0.000,   2
14604,'LD',1,   5,   1,    10.060,     4.210,     0.000,     0.000,     0.000,     0.000,   2
14804,'LD',1,   5,   1,    17.190,     4.260,     0.000,     0.000,     0.000,     0.000,   2
15001,'LD',1,   3,   2,     4.200,     1.380,     0.000,     0.000,     0.000,     0.000,   5
15001,'MI',0,   3,   2,     2.290,     0.680,     0.000,     0.000,     0.000,     0.000,   5
15401,'LD',1,   6,   1,     5.400,     1.450,     0.000,     0.000,     0.000,     0.000,   2
15801,'LD',1,   1,   1,     4.680,     1.520,     0.000,     0.000,     0.000,     0.000,   2
16202,'LD',1,   3,   1,     2.930,     0.940,     0.000,     0.000,     0.000,     0.000,   2
16604,'LD',1,   9,   1,    25.820,     7.560,     0.000,     0.000,     0.000,     0.000,   2
17004,'LD',1,   9,   1,     7.140,     2.110,     0.000,     0.000,     0.000,     0.000,   2
17204,'LD',1,   5,   1,     2.880,     0.910,     0.000,     0.000,     0.000,     0.000,   2
17404,'LD',1,   2,   1,    13.930,     4.560,     0.000,     0.000,     0.000,     0.000,   2
17802,'LD',1,   7,   2,    44.000,    14.460,     0.000,     0.000,     0.000,     0.000,   5
17802,'MI',0,   7,   2,     5.000,     1.500,     0.000,     0.000,     0.000,     0.000,   5
18004,'LD',1,   1,   1,    30.080,    14.040,     0.000,     0.000,     0.000,     0.000,   2
18204,'LD',1,   9,   1,     3.900,     1.760,     0.000,     0.000,     0.000,     0.000,   2
18402,'LD',1,   6,   1,     1.640,     0.470,     0.000,     0.000,     0.000,     0.000,   2
18404,'LD',1,   6,   1,     5.700,     2.070,     0.000,     0.000,     0.000,     0.000,   2
18604,'LD',1,   9,   1,    12.380,     4.420,     0.000,     0.000,     0.000,     0.000,   2
18804,'LD',1,   3,   1,     5.750,     2.480,     0.000,     0.000,     0.000,     0.000,   2
19004,'LD',1,   8,   1,     7.960,     1.080,     0.000,     0.000,     0.000,     0.000,   2
19204,'LD',1,   3,   1,     9.580,     3.510,     0.000,     0.000,     0.000,     0.000,   2
19471,'LD',1,   8,   1,     9.670,     3.480,     0.000,     0.000,     0.000,     0.000,   4
19601,'LD',1,   3,   1,     7.960,     2.570,     0.000,     0.000,     0.000,     0.000,   2
20201,'LD',1,   1,   1,     5.370,     1.760,     0.000,     0.000,     0.000,     0.000,   2
21004,'LD',1,  10,   1,    22.810,     6.550,     0.000,     0.000,     0.000,     0.000,   2
21204,'LD',1,   7,   1,    33.350,    10.180,     0.000,     0.000,     0.000,     0.000,   2
21404,'LD',1,   5,   1,    12.760,     2.930,     0.000,     0.000,     0.000,     0.000,   2
21604,'LD',1,   5,   1,    11.590,     1.870,     0.000,     0.000,     0.000,     0.000,   2
21804,'LD',1,  10,   1,    23.410,     5.500,     0.000,     0.000,     0.000,     0.000,   2
22204,'LD',1,   3,   1,    13.220,     5.030,     0.000,     0.000,     0.000,     0.000,   2
22404,'LD',1,   5,   1,     4.210,     1.870,     0.000,     0.000,     0.000,     0.000,   2
22804,'LD',1,   9,   1,     6.050,     1.760,     0.000,     0.000,     0.000,     0.000,   2
23001,'LD',1,   2,   1,     2.720,     0.920,     0.000,     0.000,     0.000,     0.000,   2
23604,'LD',1,   7,   1,    21.170,     7.840,     0.000,     0.000,     0.000,     0.000,   2
24804,'LD',1,   2,   1,    21.640,     6.320,     0.000,     0.000,     0.000,     0.000,   2
25604,'LD',1,   2,   1,    42.600,    10.290,     0.000,     0.000,     0.000,     0.000,   2
26802,'LD',1,   9,   2,    12.000,     3.940,     0.000,     0.000,     0.000,     0.000,   5
26802,'MI',0,   9,   2,     2.000,     0.600,     0.000,     0.000,     0.000,     0.000,   5
27004,'LD',1,   2,   1,    16.430,     0.580,     0.000,     0.000,     0.000,     0.000,   2
27204,'LD',1,   2,   1,    21.870,     0.700,     0.000,     0.000,     0.000,     0.000,   2
27404,'LD',1,   6,   1,     4.680,     2.340,     0.000,     0.000,     0.000,     0.000,   2
27471,'LD',0,   6,   1,     3.000,     1.080,     0.000,     0.000,     0.000,     0.000,   3
27472,'LD',0,   6,   1,     3.000,     1.080,     0.000,     0.000,     0.000,     0.000,   3
27473,'LD',0,   6,   1,     8.040,     2.890,     0.000,     0.000,     0.000,     0.000,   3
27604,'LD',1,   1,   1,    15.800,     5.150,     0.000,     0.000,     0.000,     0.000,   2
27802,'LD',1,   9,   1,     4.630,     1.540,     0.000,     0.000,     0.000,     0.000,   2
27804,'LD',1,   9,   1,    55.290,    10.500,     0.000,     0.000,     0.000,     0.000,   2
28604,'LD',1,   1,   1,     4.930,     1.370,     0.000,     0.000,     0.000,     0.000,   2
28804,'LD',1,   3,   1,     4.640,     1.640,     0.000,     0.000,     0.000,     0.000,   2
29401,'LD',1,   1,   1,     6.200,     2.110,     0.000,     0.000,     0.000,     0.000,   2
29671,'LD',1,   2,   2,     5.700,     2.050,     0.000,     0.000,     0.000,     0.000,   4
29801,'LD',1,   3,   1,     3.440,     0.390,     0.000,     0.000,     0.000,     0.000,   2
30804,'LD',1,   1,   1,    27.370,     4.010,     0.000,     0.000,     0.000,     0.000,   2
31004,'LD',1,   5,   1,     7.610,     2.930,     0.000,     0.000,     0.000,     0.000,   2
31271,'LD',1,   2,   2,     5.770,     2.070,     0.000,     0.000,     0.000,     0.000,   4
32201,'LD',1,   3,   1,     4.560,     1.520,     0.000,     0.000,     0.000,     0.000,   2
32204,'LD',1,   3,   1,    34.290,     6.320,     0.000,     0.000,     0.000,     0.000,   2
32404,'LD',1,   8,   1,     6.450,     3.700,     0.000,     0.000,     0.000,     0.000,   2
32604,'LD',1,   8,   1,    15.570,     3.860,     0.000,     0.000,     0.000,     0.000,   2
33004,'LD',1,   7,   1,    20.930,     4.560,     0.000,     0.000,     0.000,     0.000,   2
33601,'LD',1,   9,   2,    18.000,     5.910,     0.000,     0.000,     0.000,     0.000,   5
33601,'MI',0,   9,   2,     4.000,     1.200,     0.000,     0.000,     0.000,     0.000,   5
33801,'LD',1,   2,   2,     7.700,     2.530,     0.000,     0.000,     0.000,     0.000,   5
33801,'MI',0,   2,   2,     2.290,     0.680,     0.000,     0.000,     0.000,     0.000,   5
34001,'LD',1,   5,   1,     3.860,     0.770,     0.000,     0.000,     0.000,     0.000,   2
34404,'LD',1,   8,   1,     7.340,     2.390,     0.000,     0.000,     0.000,     0.000,   2
35004,'LD',1,   9,   1,     6.320,     2.110,     0.000,     0.000,     0.000,     0.000,   2
35078,'LD',1,   9,   3,     7.140,     2.570,     0.000,     0.000,     0.000,     0.000,   3
35404,'LD',1,   7,   1,    32.770,     7.610,     0.000,     0.000,     0.000,     0.000,   2
35604,'LD',1,  10,   1,    11.000,     2.570,     0.000,     0.000,     0.000,     0.000,   2
35804,'LD',1,   9,   1,    16.030,     1.640,     0.000,     0.000,     0.000,     0.000,   2
36001,'LD',1,   3,   1,     5.850,     1.870,     0.000,     0.000,     0.000,     0.000,   2
37601,'LD',1,   2,   1,     6.670,     2.220,     0.000,     0.000,     0.000,     0.000,   2
37602,'LD',1,   2,   2,     5.000,     1.640,     0.000,     0.000,     0.000,     0.000,   5
37602,'MI',0,   2,   2,     6.000,     1.800,     0.000,     0.000,     0.000,     0.000,   5
38001,'LD',1,   3,   1,     2.650,     0.870,     0.000,     0.000,     0.000,     0.000,   2
38004,'LD',1,   3,   1,     8.000,     2.290,     0.000,     0.000,     0.000,     0.000,   2
38204,'LD',1,  10,   1,    13.340,     4.450,     0.000,     0.000,     0.000,     0.000,   2
38804,'LD',1,   3,   1,     2.520,     0.430,     0.000,     0.000,     0.000,     0.000,   2
39471,'LD',1,   9,   1,     9.820,     3.530,     0.000,     0.000,     0.000,     0.000,   3
39472,'LD',1,   2,   2,     9.820,     3.530,     0.000,     0.000,     0.000,     0.000,   3
39473,'LD',1,   7,   1,     9.820,     3.530,     0.000,     0.000,     0.000,     0.000,   3
39601,'LD',1,   3,   1,     7.960,     1.870,     0.000,     0.000,     0.000,     0.000,   2
39672,'LD',0,   3,   1,     3.000,     1.080,     0.000,     0.000,     0.000,     0.000,   3
39675,'LD',0,   3,   1,     5.040,     1.810,     0.000,     0.000,     0.000,     0.000,   3
39801,'LD',1,   7,   2,    15.000,     4.930,     0.000,     0.000,     0.000,     0.000,   5
39801,'MI',0,   7,   2,     7.000,     2.100,     0.000,     0.000,     0.000,     0.000,   5
39801,'PK',0,   7,   2,     5.000,     1.500,     0.000,     0.000,     0.000,     0.000,   5
40004,'LD',1,   9,   1,    10.530,     3.510,     0.000,     0.000,     0.000,     0.000,   2
40204,'LD',1,   3,   1,     5.550,    -0.120,     0.000,     0.000,     0.000,     0.000,   2
40404,'LD',1,   9,   1,    11.590,     2.690,     0.000,     0.000,     0.000,     0.000,   2
40602,'LD',1,  10,   2,     8.000,     2.620,     0.000,     0.000,     0.000,     0.000,   5
40801,'LD',1,   8,   1,     5.140,     2.030,     0.000,     0.000,     0.000,     0.000,   2
42004,'LD',1,   8,   1,    12.950,     3.810,     0.000,     0.000,     0.000,     0.000,   2
42204,'LD',1,  10,   1,    18.020,     9.820,     0.000,     0.000,     0.000,     0.000,   2
42604,'LD',1,   7,   1,     6.720,     2.210,     0.000,     0.000,     0.000,     0.000,   2
42802,'LD',1,   1,   2,    26.000,     8.540,     0.000,     0.000,     0.000,     0.000,   5
43604,'LD',1,   7,   1,    11.700,     2.460,     0.000,     0.000,     0.000,     0.000,   2
44671,'LD',0,   2,   2,     5.520,     1.980,     0.000,     0.000,     0.000,     0.000,   3
44672,'LD',0,   2,   2,     5.520,     1.980,     0.000,     0.000,     0.000,     0.000,   3
44673,'LD',0,   2,   2,    13.500,     4.860,     0.000,     0.000,     0.000,     0.000,   3
44804,'LD',1,   8,   1,    15.680,     3.640,     0.000,     0.000,     0.000,     0.000,   2
46210,'LD',1,   2,   2,    24.000,     7.880,     0.000,     0.000,     0.000,     0.000,   5
46214,'LD',1,   2,   2,    21.400,     7.030,     0.000,     0.000,     0.000,     0.000,   5
46224,'LD',1,   2,   2,    31.000,    10.180,     0.000,     0.000,     0.000,     0.000,   5
46501,'LD',1,   1,   1,     0.700,     0.230,     0.000,     0.000,     0.000,     0.000,   2
46804,'LD',1,   7,   1,    10.520,     2.810,     0.000,     0.000,     0.000,     0.000,   2
47004,'LD',1,   9,   1,     7.720,     2.340,     0.000,     0.000,     0.000,     0.000,   2
47402,'LD',1,   2,   2,    16.000,     5.250,     0.000,     0.000,     0.000,     0.000,   5
47601,'LD',1,   3,   1,     1.400,     0.470,     0.000,     0.000,     0.000,     0.000,   2
47802,'LD',1,  10,   1,     0.730,     0.260,     0.000,     0.000,     0.000,     0.000,   4
49478,'LD',1,   5,   1,    10.390,     3.740,     0.000,     0.000,     0.000,     0.000,   3
49604,'LD',1,  10,   1,    26.680,    10.650,     0.000,     0.000,     0.000,     0.000,   2
49804,'LD',1,   9,   1,    15.800,     4.100,     0.000,     0.000,     0.000,     0.000,   2
50004,'LD',1,   9,   1,     7.610,     3.510,     0.000,     0.000,     0.000,     0.000,   2
50276,'LD',0,   2,   2,    10.020,     3.610,     0.000,     0.000,     0.000,     0.000,   3
50604,'LD',1,   8,   1,     6.990,     2.810,     0.000,     0.000,     0.000,     0.000,   2
51471,'LD',0,   7,   1,     3.000,     1.080,     0.000,     0.000,     0.000,     0.000,   3
51472,'LD',0,   7,   1,     3.000,     1.080,     0.000,     0.000,     0.000,     0.000,   3
51473,'LD',0,   7,   1,    15.300,     5.510,     0.000,     0.000,     0.000,     0.000,   3
51474,'LD',0,   7,   1,    15.300,     5.510,     0.000,     0.000,     0.000,     0.000,   3
51771,'LD',1,   9,   1,     5.780,     2.080,     0.000,     0.000,     0.000,     0.000,   4
51801,'LD',1,   1,   1,     4.680,     1.170,     0.000,     0.000,     0.000,     0.000,   2
51804,'LD',1,   3,   1,    15.570,     0.230,     0.000,     0.000,     0.000,     0.000,   2
52204,'LD',1,   7,   1,     3.280,     0.700,     0.000,     0.000,     0.000,     0.000,   2
52604,'LD',1,   7,   1,    16.850,     5.500,     0.000,     0.000,     0.000,     0.000,   2
52804,'LD',1,   7,   1,    13.910,     1.990,     0.000,     0.000,     0.000,     0.000,   2
53004,'LD',1,   5,   1,    14.040,     4.670,     0.000,     0.000,     0.000,     0.000,   2
53204,'LD',1,   2,   1,    10.530,     2.680,     0.000,     0.000,     0.000,     0.000,   2
53404,'LD',1,   9,   1,     4.870,     1.600,     0.000,     0.000,     0.000,     0.000,   2
53604,'LD',1,   9,   1,     6.200,     1.870,     0.000,     0.000,     0.000,     0.000,   2
53804,'LD',1,   5,   1,     6.460,     1.870,     0.000,     0.000,     0.000,     0.000,   2
54404,'LD',1,   5,   1,     8.700,     3.690,     0.000,     0.000,     0.000,     0.000,   2
54801,'LD',1,   3,   2,     0.500,     0.160,     0.000,     0.000,     0.000,     0.000,   5
54801,'MI',0,   3,   2,     7.910,     2.370,     0.000,     0.000,     0.000,     0.000,   5
55004,'LD',1,   6,   1,    16.500,     4.680,     0.000,     0.000,     0.000,     0.000,   2
55201,'LD',1,   1,   1,    12.050,     3.860,     0.000,     0.000,     0.000,     0.000,   2
0 / END OF LOAD DATA, BEGIN GENERATOR DATA
 1151,'1 ',    21.000,     0.000,     0.000,     0.000,1.00000,    0,    60.000,   0.00000,   0.20000,   0.00000,   0.10000,1.00000,1,  100.0,    60.000,     0.000,   1,1.0000
 1231,'1 ',    11.000,     0.000,     0.000,     0.000,1.00000,    0,    31.500,   0.00000,   0.20000,   0.00000,   0.00000,1.00000,1,  100.0,    31.500,     0.000,   4,1.0000
 1251,'1 ',     6.800,     0.000,     0.000,     0.000,1.00000,    0,    19.450,   0.00000,   0.20000,   0.00000,   0.10000,1.00000,1,  100.0,    19.450,     0.000,   1,1.0000
 2231,'1 ',    21.000,     0.000,     0.000,     0.000,1.00000,    0,    60.000,   0.00000,   0.20000,   0.00000,   0.00000,1.00000,1,  100.0,    60.000,     0.000,   1,1.0000
 4071,'1 ',    24.800,     0.000,     0.000,     0.000,1.00000,    0,    71.000,   0.00000,   0.20000,   0.00000,   0.00000,1.00000,1,  100.0,    70.960,     0.000,   1,1.0000
10204,'1 ',     0.900,     0.000,     0.000,     0.000,1.00000,    0,     2.550,   0.00000,   0.20000,   0.00000,   0.20000,1.00000,1,  100.0,     2.550,     0.000,   4,1.0000
10204,'2 ',     0.200,     0.000,     0.000,     0.000,1.00000,    0,     0.660,   0.00000,   0.20000,   0.00000,   0.00000,1.00000,1,  100.0,     0.660,     0.000,   4,1.0000
10271,'1 ',    22.000,     0.000,    15.000,    -7.000,1.00000, 1021,    34.000,   0.00000,   0.22000,   0.00000,   0.00000,1.00000,0,   15.0,    22.000,     5.000,   3,1.0000
10272,'2 ',    22.000,     0.000,    15.000,    -7.000,1.00000, 1021,    34.000,   0.00000,   0.22000,   0.00000,   0.00000,1.00000,0,   15.0,    22.000,     5.000,   3,1.0000
10273,'3 ',    22.000,     0.000,    15.000,    -7.000,1.00000, 1021,    30.000,   0.00000,   0.22000,   0.00000,   0.00000,1.00000,0,   15.0,    22.000,     5.000,   3,1.0000
10274,'4 ',    23.000,     0.000,    15.000,    -7.000,1.00000, 1021,    34.000,   0.00000,   0.22000,   0.00000,   0.00000,1.00000,0,   15.0,    23.000,     5.000,   3,1.0000
10471,'1 ',   270.000,     0.000,   153.000,   -53.000,1.02000, 1042,   318.800,   0.00000,   0.22500,   0.00000,   0.00000,1.00000,0,  153.0,   270.000,    40.000,   3,1.0000
10472,'11',    90.000,     0.000,    60.000,   -30.000,1.02000, 1042,   100.900,   0.00000,   0.12500,   0.00000,   0.00000,1.00000,0,   60.0,    90.000,    20.000,   3,1.0000
10473,'12',    90.000,     0.000,    60.000,   -30.000,1.02000, 1042,   100.900,   0.00000,   0.12500,   0.00000,   0.00000,1.00000,0,   60.0,    90.000,    20.000,   3,1.0000
10474,'14',    90.000,     0.000,    60.000,   -30.000,1.02000, 1042,   100.900,   0.00000,   0.12500,   0.00000,   0.00000,1.00000,0,   60.0,    90.000,    20.000,   3,1.0000
10602,'1 ',     0.400,    -0.180,    -0.180,    -0.180,1.05000,    0,     1.200,   0.00000,   0.20000,   0.00000,   0.20000,1.00000,1,  100.0,     1.200,     0.000,   4,1.0000
10602,'2 ',     1.700,    -0.740,    -0.740,    -0.740,1.05000,    0,     4.850,   0.00000,   0.20000,   0.00000,   0.20000,1.00000,1,  100.0,     4.850,     0.000,   4,1.0000
10602,'3 ',     1.800,    -0.760,    -0.760,    -0.760,1.05000,    0,     5.000,   0.00000,   0.20000,   0.00000,   0.20000,1.00000,1,  100.0,     5.000,     0.000,   4,1.0000
11204,'1 ',     8.900,     0.000,     0.000,     0.000,1.05000,    0,    25.500,   0.00000,   0.20000,   0.00000,   0.20000,1.00000,1,  100.0,    25.500,     0.000,   2,1.0000
11671,'1 ',    63.300,    -2.588,    50.000,   -35.000,1.01500, 1161,    93.750,   0.00000,   0.16500,   0.00000,   0.00000,1.00000,1,   50.0,    76.500,     0.000,   4,1.0000
11672,'2 ',    63.300,    -2.588,    50.000,   -35.000,1.01500, 1161,    93.750,   0.00000,   0.16500,   0.00000,   0.00000,1.00000,1,   50.0,    76.500,     0.000,   4,1.0000
12804,'1 ',     3.000,     0.000,     0.000,     0.000,1.00000,    0,     8.500,   0.00000,   0.20000,   0.00000,   0.20000,1.00000,1,  100.0,     8.500,     0.000,   1,1.0000
12804,'2 ',     6.800,     0.000,     0.000,     0.000,1.00000,    0,    19.500,   0.00000,   0.20000,   0.00000,   0.00000,1.00000,1,  100.0,    19.500,     0.000,   1,1.0000
13404,'1 ',     0.200,     0.000,     0.000,     0.000,1.05000,    0,     0.660,   0.00000,   0.20000,   0.00000,   0.20000,1.00000,1,  100.0,     0.660,     0.000,   4,1.0000
14002,'3 ',     2.100,    -0.920,    -0.920,    -0.920,1.05000,    0,     6.000,   0.00000,   0.20000,   0.00000,   0.10000,1.00000,1,  100.0,     6.000,     0.000,   3,1.0000
14404,'1 ',     1.600,     0.000,     0.000,     0.000,1.00000,    0,     4.500,   0.00000,   0.20000,   0.00000,   0.00000,1.00000,1,  100.0,     4.500,     0.000,   2,1.0000
14604,'1 ',     0.000,     0.000,     1.000,    -1.000,1.05000,    0,     7.000,   0.00000,   0.15000,   0.00000,   0.10000,1.00000,0,    1.0,     0.000,     0.000,   5,1.0000
16302,'1 ',     1.200,     0.000,     0.000,     0.000,1.00000,    0,     3.400,   0.00000,   0.20000,   0.00000,   0.00000,1.00000,1,  100.0,     3.400,     0.000,   1,1.0000
16302,'2 ',     1.200,     0.000,     0.000,     0.000,1.00000,    0,     3.400,   0.00000,   0.20000,   0.00000,   0.00000,1.00000,1,  100.0,     3.400,     0.000,   1,1.0000
16302,'3 ',     2.400,     0.000,     0.000,     0.000,1.00000,    0,     6.800,   0.00000,   0.20000,   0.00000,   0.00000,1.00000,1,  100.0,     6.800,     0.000,   1,1.0000
16604,'1 ',     1.200,    -0.520,    -0.520,    -0.520,1.05000,    0,     3.400,   0.00000,   0.20000,   0.00000,   0.20000,1.00000,1,  100.0,     3.400,     0.000,   4,1.0000
16604,'2 ',     6.500,     0.000,     0.000,     0.000,1.05000,    0,    18.700,   0.00000,   0.20000,   0.00000,   0.20000,1.00000,1,  100.0,    18.700,     0.000,   4,1.0000
16873,'3 ',     8.000,     0.000,     7.000,    -1.000,1.00000, 1681,    11.500,   0.00000,   0.25000,   0.00000,   0.00000,1.00000,0,    7.0,     8.000,     2.000,   3,1.0000
17004,'4 ',     1.200,     0.000,     0.000,     0.000,1.05000,    0,     3.450,   0.00000,   0.20000,   0.00000,   0.20000,1.00000,1,  100.0,     3.400,     0.000,   2,1.0000
17004,'5 ',     1.100,    -0.470,    -0.470,    -0.470,1.05000,    0,     3.200,   0.00000,   0.20000,   0.00000,   0.20000,1.00000,1,  100.0,     3.100,     0.000,   4,1.0000
17073,'3 ',    22.500,     0.000,     7.000,   -10.000,1.00000, 1701,    30.000,   0.00000,   0.20000,   0.00000,   0.00000,1.00000,0,    7.0,    22.500,     5.000,   3,1.0000
17074,'4 ',    22.500,     0.000,     7.000,   -10.000,1.00000, 1701,    30.000,   0.00000,   0.20000,   0.00000,   0.00000,1.00000,0,    7.0,    22.500,     5.000,   3,1.0000
17671,'1 ',    10.000,     0.000,     7.000,    -3.000,1.00000, 1701,    12.500,   0.00000,   0.15000,   0.00000,   0.00000,1.00000,0,    7.0,    10.000,     3.000,   3,1.0000
17672,'2 ',    10.000,     0.000,     7.000,    -3.000,1.00000, 1701,    12.500,   0.00000,   0.13500,   0.00000,   0.00000,1.00000,0,    7.0,    10.000,     3.000,   3,1.0000
18404,'1 ',     1.800,     0.000,     0.000,     0.000,1.00000,    0,     5.200,   0.00000,   0.20000,   0.00000,   0.20000,1.00000,1,  100.0,     5.200,     0.000,   2,1.0000
19004,'1 ',     0.900,     0.000,     0.000,     0.000,1.05000,    0,     2.550,   0.00000,   0.25400,   0.00000,   0.10000,1.00000,1,  100.0,     2.550,     0.000,   2,1.0000
19402,'1 ',     8.300,    -6.396,     6.000,   -12.000,1.00000,    0,    25.000,   0.00000,   0.20000,   0.00000,   0.10000,1.00000,1,    6.0,    25.000,     0.000,   1,1.0000
19471,'1 ',   107.500,   -14.186,    75.000,   -50.000,1.00000, 1941,   153.000,   0.00000,   0.15300,   0.00000,   0.00000,1.00000,1,   75.0,   130.000,    60.000,   4,1.0000
22204,'1 ',     1.600,    -0.700,    -0.700,    -0.700,1.05000,    0,     4.600,   0.00000,   0.20000,   0.00000,   0.20000,1.00000,1,  100.0,     4.600,     0.000,   3,1.0000
22204,'2 ',     2.100,    -0.920,    -0.920,    -0.920,1.05000,    0,     6.000,   0.00000,   0.20000,   0.00000,   0.20000,1.00000,1,  100.0,     6.000,     0.000,   3,1.0000
22204,'3 ',     2.100,     0.000,     0.000,     0.000,1.05000,    0,     5.950,   0.00000,   0.20000,   0.00000,   0.20000,1.00000,1,  100.0,     5.950,     0.000,   4,1.0000
27204,'5 ',     4.000,     0.000,     1.000,    -1.000,1.00000,    0,     5.000,   0.00000,   0.27000,   0.00000,   0.10000,1.00000,0,    1.0,     4.000,     0.000,   3,1.0000
27471,'1 ',    60.000,     0.000,    42.000,    -3.000,1.00000, 2741,    75.000,   0.00000,   0.16000,   0.00000,   0.00000,1.00000,0,   42.0,    60.000,    25.000,   3,1.0000
27472,'2 ',    60.000,     0.000,    40.000,    -3.000,1.00000, 2741,    75.000,   0.00000,   0.16000,   0.00000,   0.00000,1.00000,0,   40.0,    60.000,    25.000,   3,1.0000
27473,'3 ',   120.000,     0.000,    82.000,   -48.000,1.04000, 2742,   150.000,   0.00000,   0.14600,   0.00000,   0.00000,1.00000,0,   82.0,   120.000,    30.000,   3,1.0000
27804,'1 ',     1.200,    -0.500,    -0.500,    -0.500,1.05000,    0,     3.300,   0.00000,   0.20000,   0.00000,   0.20000,1.00000,1,  100.0,     3.300,     0.000,   4,1.0000
27804,'2 ',     0.200,     0.000,     0.000,     0.000,1.05000,    0,     0.675,   0.00000,   0.20000,   0.00000,   0.20000,1.00000,1,  100.0,     0.675,     0.000,   2,1.0000
28002,'1 ',     5.300,    -2.290,    -2.290,    -2.290,1.00000,    0,    15.000,   0.00000,   0.20000,   0.00000,   0.10000,1.00000,1,  100.0,    15.000,     0.000,   4,1.0000
29671,'CT',   190.200,   -10.774,   173.000,  -106.000,1.03500, 4462,   288.000,   0.00000,   0.14500,   0.00000,   0.00000,1.00000,1,  173.0,   230.000,   138.000,   4,1.0000
29672,'ST',    99.300,    -5.605,    90.000,   -47.000,1.03500, 4462,   150.000,   0.00000,   0.15500,   0.00000,   0.00000,1.00000,1,   90.0,   120.000,    89.000,   4,1.0000
30671,'1 ',    15.000,     0.000,    13.000,    -4.000,1.00000, 3061,    21.400,   0.00000,   0.16000,   0.00000,   0.00000,1.00000,0,    3.0,    15.000,     4.000,   3,1.0000
30671,'2 ',     4.000,     0.000,     3.000,    -1.000,1.00000, 3061,     5.700,   0.00000,   0.14000,   0.00000,   0.00000,1.00000,0,    3.0,     4.000,     1.000,   3,1.0000
31004,'1 ',     0.900,     0.000,     0.000,     0.000,1.00000,    0,     2.550,   0.00000,   0.20000,   0.00000,   0.20000,1.00000,1,  100.0,     2.550,     0.000,   2,1.0000
31271,'1 ',   330.100,   -12.455,   200.000,  -114.000,1.03500, 4462,   500.000,   0.00000,   0.19000,   0.00000,   0.00000,1.00000,1,  200.0,   399.000,   163.000,   4,1.0000
32604,'1 ',     0.000,     0.000,     1.000,    -1.000,1.05000,    0,    15.000,   0.00000,   0.15000,   0.00000,   0.10000,1.00000,0,    1.0,     0.000,     0.000,   5,1.0000
33004,'1 ',     3.300,     0.000,     0.000,     0.000,1.00000,    0,     9.350,   0.00000,   0.20000,   0.00000,   0.20000,1.00000,1,  100.0,     9.350,     0.000,   2,1.0000
35078,'8 ',    82.700,   -27.198,    62.000,   -40.000,1.00000, 3501,   118.000,   0.00000,   0.13700,   0.00000,   0.00000,1.00000,1,   62.0,   100.000,    40.000,   3,1.0000
35804,'1 ',     5.300,    -2.290,    -2.290,    -2.290,1.05000,    0,    15.000,   0.00000,   0.20000,   0.00000,   0.20000,1.00000,1,  100.0,    15.000,     0.000,   4,1.0000
35804,'2 ',     1.700,    -0.760,    -0.760,    -0.760,1.05000,    0,     5.300,   0.00000,   0.20000,   0.00000,   0.20000,1.00000,1,  100.0,     4.980,     0.000,   4,1.0000
35804,'3 ',     4.200,    -1.840,    -1.840,    -1.840,1.05000,    0,    12.000,   0.00000,   0.20000,   0.00000,   0.20000,1.00000,1,  100.0,    12.000,     0.000,   4,1.0000
35804,'4 ',     0.900,     0.000,     0.000,     0.000,1.05000,    0,     2.550,   0.00000,   0.20000,   0.00000,   0.20000,1.00000,1,  100.0,     2.550,     0.000,   4,1.0000
35804,'5 ',     0.900,     0.000,     0.000,     0.000,1.05000,    0,     2.550,   0.00000,   0.20000,   0.00000,   0.20000,1.00000,1,  100.0,     2.450,     0.000,   4,1.0000
38204,'1 ',     3.700,     0.000,     0.000,     0.000,1.00000,    0,    10.500,   0.00000,   0.20000,   0.00000,   0.20000,1.00000,1,  100.0,    10.500,     0.000,   4,1.0000
38204,'2 ',     1.600,     0.000,     0.000,     0.000,1.00000,    0,     4.500,   0.00000,   0.20000,   0.00000,   0.20000,1.00000,1,  100.0,     4.500,     0.000,   4,1.0000
39471,'1 ',   147.667,    -2.047,   160.000,   -70.000,1.00000,    0,   359.000,   0.00000,   0.17900,   0.00000,   0.00000,1.00000,1,  160.0,   305.000,   115.000,   3,1.0000
39472,'2 ',   149.800,    62.818,   160.000,   -70.000,1.05000, 3954,   359.000,   0.00000,   0.17900,   0.00000,   0.00000,1.00000,1,  160.0,   305.000,   115.000,   3,1.0000
39473,'3 ',   147.667,    -2.047,   160.000,   -70.000,1.00000,    0,   359.000,   0.00000,   0.17900,   0.00000,   0.00000,1.00000,1,  160.0,   305.000,   115.000,   3,1.0000
39672,'2 ',    30.000,     0.000,    15.000,     0.000,1.00000, 3961,    40.000,   0.00000,   0.12200,   0.00000,   0.00000,1.00000,0,   15.0,    30.000,    10.000,   3,1.0000
39675,'GT',    90.000,     0.000,    60.000,   -19.000,1.00000, 3961,   100.900,   0.00000,   0.12500,   0.00000,   0.00000,1.00000,0,   60.0,    90.000,    30.000,   3,1.0000
42404,'1 ',    15.000,     0.000,     5.000,     0.000,1.05000,    0,    20.000,   0.00000,   0.11700,   0.00000,   0.10500,1.07000,0,    5.0,    15.000,     6.000,   3,1.0000
42404,'2 ',    15.000,     0.000,     5.000,     0.000,1.05000,    0,    20.000,   0.00000,   0.11700,   0.00000,   0.10500,1.07000,0,    5.0,    15.000,     6.000,   3,1.0000
42404,'3 ',    15.000,     0.000,     5.000,     0.000,1.05000,    0,    20.000,   0.00000,   0.11700,   0.00000,   0.10000,1.07000,0,    5.0,    15.000,     6.000,   3,1.0000
42474,'4 ',   118.000,     0.000,    55.000,   -20.000,1.04000, 4462,   132.100,   0.00000,   0.13900,   0.00000,   0.00000,1.00000,0,   55.0,   118.000,    40.000,   3,1.0000
42475,'5 ',   109.000,     0.000,    55.000,   -20.000,1.04000, 4462,   132.100,   0.00000,   0.13900,   0.00000,   0.00000,1.00000,0,   55.0,   109.000,    20.000,   3,1.0000
44471,'1 ',    15.000,     0.000,     9.000,   -10.000,1.00000, 4441,    18.800,   0.00000,   0.27000,   0.00000,   0.00000,1.00000,0,    3.0,    15.000,     5.000,   3,1.0000
44471,'4 ',     4.000,     0.000,     3.000,    -1.000,1.00000, 4441,     5.000,   0.00000,   0.27000,   0.00000,   0.00000,1.00000,0,    3.0,     4.000,     1.000,   3,1.0000
44472,'2 ',    15.000,     0.000,     9.000,   -10.000,1.00000, 4441,    18.800,   0.00000,   0.27000,   0.00000,   0.00000,1.00000,0,    9.0,    15.000,     5.000,   3,1.0000
44671,'1 ',   120.000,     0.000,    65.000,   -43.000,1.04000, 4462,   150.000,   0.00000,   0.16700,   0.00000,   0.00000,1.00000,0,   65.0,   120.000,    60.000,   3,1.0000
44672,'2 ',   120.000,     0.000,    66.000,   -46.000,1.04000, 4462,   150.000,   0.00000,   0.16700,   0.00000,   0.00000,1.00000,0,   66.0,   120.000,    60.000,   3,1.0000
44673,'3 ',   270.000,     0.000,   100.000,   -48.000,1.04000, 4462,   318.800,   0.00000,   0.22500,   0.00000,   0.00000,1.00000,0,  100.0,   270.000,    60.000,   3,1.0000
46210,'1 ',     0.000,     0.000,     1.000,    -1.000,1.05000,    0,    20.000,   0.00000,   0.20000,   0.00000,   0.10000,1.00000,0,    1.0,     0.000,     0.000,   5,1.0000
47802,'1 ',    24.500,     0.000,     0.000,     0.000,1.00000,    0,    70.000,   0.00000,   0.20000,   0.00000,   0.10000,1.00000,1,  100.0,    70.000,     0.000,   4,1.0000
47802,'2 ',     8.700,     0.000,     0.000,     0.000,1.00000,    0,    24.800,   0.00000,   0.20000,   0.00000,   0.10000,1.00000,1,  100.0,    24.800,     0.000,   4,1.0000
49478,'8 ',   124.100,   -31.575,    93.000,   -59.000,1.00000, 4942,   177.000,   0.00000,   0.12100,   0.00000,   0.00000,1.00000,1,   93.0,   150.000,    55.000,   3,1.0000
49604,'1 ',     1.100,    -0.460,    -0.460,    -0.460,1.05000,    0,     3.000,   0.00000,   0.20000,   0.00000,   0.20000,1.00000,1,  100.0,     3.000,     0.000,   4,1.0000
49604,'2 ',     1.100,     0.000,     0.000,     0.000,1.05000,    0,     3.000,   0.00000,   0.20000,   0.00000,   0.20000,1.00000,1,  100.0,     3.000,     0.000,   4,1.0000
50004,'1 ',     2.700,    -1.170,    -1.170,    -1.170,1.05000,    0,     7.650,   0.00000,   0.20000,   0.00000,   0.20000,1.00000,1,  100.0,     7.650,     0.000,   2,1.0000
50274,'14',   150.000,     0.000,    75.000,   -40.000,1.04000, 4462,   170.000,   0.00000,   0.16200,   0.00000,   0.00000,1.00000,0,   75.0,   150.000,    50.000,   3,1.0000
50275,'15',   150.000,     0.000,    75.000,   -60.000,1.04000, 4462,   170.000,   0.00000,   0.16200,   0.00000,   0.00000,1.00000,0,   75.0,   150.000,    50.000,   3,1.0000
50276,'16',   170.000,     0.000,    80.000,   -40.000,1.04000, 4462,   230.000,   0.00000,   0.15800,   0.00000,   0.00000,1.00000,0,   80.0,   170.000,    30.000,   3,1.0000
51471,'1 ',    60.000,     0.000,    25.000,   -10.000,1.04000, 5142,    75.000,   0.00000,   0.13500,   0.00000,   0.00000,1.00000,0,   25.0,    60.000,    30.000,   3,1.0000
51472,'2 ',    60.000,     0.000,    25.000,   -10.000,1.04000, 5142,    75.000,   0.00000,   0.13500,   0.00000,   0.00000,1.00000,0,   25.0,    60.000,    30.000,   3,1.0000
51473,'3 ',   256.000,     0.000,   110.000,   -45.000,1.04000, 5142,   294.000,   0.00000,   0.20700,   0.00000,   0.00000,1.00000,0,  110.0,   256.000,    40.000,   3,1.0000
51474,'4 ',   256.000,     0.000,   110.000,   -45.000,1.04000, 5142,   294.000,   0.00000,   0.20700,   0.00000,   0.00000,1.00000,0,  110.0,   256.000,    40.000,   3,1.0000
51771,'CT',   213.400,   -43.800,   175.000,   -92.000,1.00000, 5172,   292.000,   0.00000,   0.17000,   0.00000,   0.00000,1.00000,1,  175.0,   258.000,   155.000,   4,1.0000
51772,'ST',   115.800,   -25.029,   100.000,   -52.000,1.00000, 5172,   166.000,   0.00000,   0.13100,   0.00000,   0.00000,1.00000,1,  100.0,   140.000,   111.000,   4,1.0000
52071,'1 ',   -70.000,     2.584,    40.000,   -35.000,1.02000, 5202,    87.500,   0.00000,   0.15000,   0.00000,   0.00000,1.00000,1,   40.0,    73.000,   -73.000,   3,1.0000
52071,'2 ',   -70.000,     2.584,    40.000,   -35.000,1.02000, 5202,    87.500,   0.00000,   0.15000,   0.00000,   0.00000,1.00000,1,   40.0,    73.000,   -73.000,   3,1.0000
52071,'3 ',   -70.000,     2.584,    40.000,   -35.000,1.02000, 5202,    87.500,   0.00000,   0.15000,   0.00000,   0.00000,1.00000,1,   40.0,    73.000,   -73.000,   3,1.0000
52071,'4 ',    73.000,     0.000,    40.000,   -35.000,1.02000, 5202,    87.500,   0.00000,   0.15000,   0.00000,   0.00000,1.00000,0,   40.0,    73.000,   -73.000,   3,1.0000
52204,'1 ',     4.400,     0.000,     0.000,     0.000,1.00000,    0,    12.600,   0.00000,   0.20000,   0.00000,   0.20000,1.00000,1,  100.0,    12.600,     0.000,   4,1.0000
52604,'1 ',     1.500,    -0.660,    -0.660,    -0.660,1.05000,    0,     4.300,   0.00000,   0.20000,   0.00000,   0.20000,1.00000,1,  100.0,     4.290,     0.000,   4,1.0000
52604,'2 ',     2.700,     0.000,     0.000,     0.000,1.05000,    0,     7.600,   0.00000,   0.20000,   0.00000,   0.20000,1.00000,1,  100.0,     7.600,     0.000,   4,1.0000
52804,'1 ',     5.300,    -2.290,    -2.290,    -2.290,1.00000,    0,    15.000,   0.00000,   0.20000,   0.00000,   0.20000,1.00000,1,    1.0,    15.000,     0.000,   4,1.0000
52804,'2 ',     2.400,    -1.040,    -1.040,    -1.040,1.00000,    0,     6.800,   0.00000,   0.20000,   0.00000,   0.20000,1.00000,1,    1.0,     6.800,     0.000,   2,1.0000
52804,'3 ',     1.400,    -0.610,    -0.610,    -0.610,1.00000,    0,     4.000,   0.00000,   0.20000,   0.00000,   0.20000,1.00000,1,    1.0,     4.000,     0.000,   4,1.0000
52804,'4 ',     5.300,     0.000,     0.000,     0.000,1.00000,    0,    15.000,   0.00000,   0.20000,   0.00000,   0.20000,1.00000,1,    1.0,    15.000,     0.000,   2,1.0000
52804,'5 ',     1.800,     0.000,     0.000,     0.000,1.00000,    0,     5.100,   0.00000,   0.20000,   0.00000,   0.20000,1.00000,1,    1.0,     5.100,     0.000,   2,1.0000
53404,'1 ',     2.100,    -0.910,    -0.910,    -0.910,1.05000,    0,     6.000,   0.00000,   0.20000,   0.00000,   0.20000,1.00000,1,  100.0,     5.940,     0.000,   3,1.0000
53604,'1 ',     1.800,    -0.760,    -0.760,    -0.760,1.05000,    0,     5.000,   0.00000,   0.20000,   0.00000,   0.20000,1.00000,1,  100.0,     5.000,     0.000,   4,1.0000
53604,'2 ',     1.700,    -0.730,    -0.730,    -0.730,1.05000,    0,     4.800,   0.00000,   0.20000,   0.00000,   0.20000,1.00000,1,  100.0,     4.800,     0.000,   4,1.0000
53604,'3 ',     4.900,     0.000,     0.000,     0.000,1.05000,    0,    14.000,   0.00000,   0.20000,   0.00000,   0.20000,1.00000,1,  100.0,    14.000,     0.000,   4,1.0000
53604,'4 ',    11.000,     0.000,     0.000,     0.000,1.05000,    0,    31.500,   0.00000,   0.20000,   0.00000,   0.20000,1.00000,1,  100.0,    31.500,     0.000,   4,1.0000
54801,'1 ',     0.000,     0.000,     1.000,    -1.000,1.05000,    0,    10.000,   0.00000,   0.13000,   0.00000,   0.10000,1.00000,0,    1.0,     0.000,     0.000,   5,1.0000
55004,'1 ',     4.100,    -1.800,    -1.800,    -1.800,1.05000,    0,    11.800,   0.00000,   0.20000,   0.00000,   0.20000,1.00000,1,  100.0,    11.800,     0.000,   4,1.0000
55004,'2 ',     7.100,     0.000,     0.000,     0.000,1.05000,    0,    20.250,   0.00000,   0.20000,   0.00000,   0.20000,1.00000,1,  100.0,    20.250,     0.000,   4,1.0000
0 / END OF GENERATOR DATA, BEGIN BRANCH DATA
   11, 42404,'1 ',   0.00360,   0.00391,   0.00207, 9999.00, 9999.00,10998.90,  0.00000,  0.00000,  0.00000,  0.00000,1,   1.00,   2,1.0000
   12,-25404,'1 ',   0.00534,   0.00795,   0.00407, 9999.00, 9999.00,10998.90,  0.00000,  0.00000,  0.00000,  0.00000,1,   1.40,   1,1.0000
   12,-25404,'3 ',   0.00594,   0.00866,   0.00435, 9999.00, 9999.00,10998.90,  0.00000,  0.00000,  0.00000,  0.00000,1,   0.00,   1,1.0000
   12, 46504,'1 ',   0.02132,   0.02114,   0.00329, 9999.00, 9999.00,10998.90,  0.00000,  0.00000,  0.00000,  0.00000,1,   5.14,   1,1.0000
   12, 46504,'2 ',   0.01937,   0.01703,   0.00256, 9999.00, 9999.00,10998.90,  0.00000,  0.00000,  0.00000,  0.00000,1,   3.96,   1,1.0000
   41, -1741,'1 ',   0.00260,   0.00480,   0.07610,  100.00,  100.00,  107.00,  0.00000,  0.00000,  0.00000,  0.00000,0,   5.00,   1,1.0000
   41, -3871,'1 ',   0.00210,   0.00380,   0.06090,  100.00,  100.00,  107.00,  0.00000,  0.00000,  0.00000,  0.00000,1,   4.00,   1,1.0000
   51,  2541,'1 ',   0.00310,   0.00960,   0.03810,  140.00,  140.00,  252.00,  0.00000,  0.00000,  0.00000,  0.00000,1,   6.00,   1,1.0000
   51,  4651,'1 ',   0.00280,   0.00880,   0.03500,  140.00,  140.00,  252.00,  0.00000,  0.00000,  0.00000,  0.00000,1,   5.50,   1,1.0000
 1021,  2121,'1 ',   0.02830,   0.06260,   0.00590,  107.00,  107.00,  138.60,  0.00000,  0.00000,  0.00000,  0.00000,1,  18.20,   1,1.0000
 1021,  2361,'1 ',   0.05100,   0.11280,   0.01050,  107.00,  107.00,  117.70,  0.00000,  0.00000,  0.00000,  0.00000,1,  32.80,   1,1.0000
 1021,  3281,'1 ',   0.01480,   0.03270,   0.00310,  107.00,  107.00,  117.70,  0.00000,  0.00000,  0.00000,  0.00000,1,   9.50,   1,1.0000
 1021,  3541,'1 ',   0.01390,   0.03810,   0.01200,  107.00,  107.00,  138.60,  0.00000,  0.00000,  0.00000,  0.00000,1,  11.70,   1,1.0000
 1041,  5481,'1 ',   0.00490,   0.01070,   0.00100,  107.00,  107.00,  117.70,  0.00000,  0.00000,  0.00000,  0.00000,1,   3.10,   1,1.0000
 1042,  3202,'1 ',   0.00300,   0.02220,   0.03350,  431.00,  431.00,  474.10,  0.00000,  0.00000,  0.00000,  0.00000,1,  25.60,   1,1.0000
 1042,  3202,'2 ',   0.00300,   0.02220,   0.03350,  431.00,  431.00,  474.10,  0.00000,  0.00000,  0.00000,  0.00000,1,  25.60,   1,1.0000
 1042,  4722,'1 ',   0.00320,   0.02340,   0.03530,  431.00,  431.00,  569.80,  0.00000,  0.00000,  0.00000,  0.00000,1,  27.00,   1,1.0000
 1061, 10619,'1 ',   0.00050,   0.00120,   0.00010,   34.00,   34.00,   62.70,  0.00000,  0.00000,  0.00000,  0.00000,1,   0.30,   1,1.0000
 1081,  3281,'1 ',   0.00390,   0.01240,   0.00390,   68.00,  112.00,  121.00,  0.00000,  0.00000,  0.00000,  0.00000,1,   3.80,   1,1.0000
 1101,  2161,'1 ',   0.00310,   0.00690,   0.00060,   45.00,  107.00,  117.70,  0.00000,  0.00000,  0.00000,  0.00000,1,   2.00,   1,1.0000
 1121,  1151,'1 ',   0.00870,   0.02700,   0.10800,  140.00,  140.00,  252.00,  0.00000,  0.00000,  0.00000,  0.00000,1,  17.00,   1,1.0000
 1121,  1301,'1 ',   0.01260,   0.08920,   0.00810,  137.00,  137.00,  180.40,  0.00000,  0.00000,  0.00000,  0.00000,1,  25.00,   1,1.0000
 1121,  1541,'1 ',   0.03520,   0.07770,   0.00730,  107.00,  107.00,  138.60,  0.00000,  0.00000,  0.00000,  0.00000,1,  22.60,   1,1.0000
 1121,  4901,'1 ',   0.00350,   0.00770,   0.00080,   34.00,   34.00,   37.40,  0.00000,  0.00000,  0.00000,  0.00000,1,   2.20,   1,1.0000
 1121,  4911,'2 ',   0.00370,   0.00830,   0.00080,   34.00,   34.00,   37.40,  0.00000,  0.00000,  0.00000,  0.00000,1,   2.40,   1,1.0000
 1122,  1742,'1 ',   0.00620,   0.04620,   0.06970,  431.00,  431.00,  474.10,  0.00000,  0.00000,  0.00000,  0.00000,1,  53.30,   1,1.0000
 1122,  2742,'1 ',   0.01020,   0.07610,   0.11480,  275.00,  431.00,  569.80,  0.00000,  0.00000,  0.00000,  0.00000,1,  87.81,   1,1.0000
 1141,  3501,'1 ',   0.05400,   0.12280,   0.01160,   68.00,   93.00,  102.30,  0.00000,  0.00000,  0.00000,  0.00000,1,  35.80,   1,1.0000
 1141,  4941,'1 ',   0.02250,   0.07210,   0.00740,   93.00,   93.00,  144.10,  0.00000,  0.00000,  0.00000,  0.00000,1,  21.60,   1,1.0000
 1141, 11461,'1 ',   0.00000,   0.00010,   0.00000,  107.00,  107.00,  138.60,  0.00000,  0.00000,  0.00000,  0.00000,1,   0.00,   1,1.0000
...